base_system/case59.m
function mpc = case59
%CASE59 Power flow data for 59 bus Australian 14 generator system.
%   Please see CASEFORMAT for details on the case file format.
%
%   This MATPOWER file is based on reports of IEEE-PES-TR18 entitled
%   "Benchmark Systems for Small-Signal Stability Analysis and Control"
%   from IEEE PES Task Force on Benchmark Systems for Stability Controls.
%   A summary of this report has been published in the paper
%   entitled "Benchmark Models for the Analysis and Control of Small-Signal
%   Oscillatory Dynamics in Power Systems."
%
%   On below link, reports and data files for six benchmark systems have
%   been provided.
%      https://cmte.ieee.org/pes-psdp/benchmark-systems-2/
%
%   The current file is based on the Australian 14 generator system report
%   entitled "Simplified 14-Generator Model of the South East Australian
%   Power System" and its accompanying data files. In the
%   AU14GenModelData_Ver04.zip, load flow files are available for different
%   load cases. We prepared MATPOWER file based on load case 1 data, and
%   it is possible to prepare files for other load cases.
%
%   This MATPOWER file has been prepared using LF_Case01_R4_S.raw, which
%   is available in AU14GenModelData_Ver04.zip.
%
%   Notes:
%       ##bus data (LF_Case01_R4_S.raw file: BUS DATA and LOAD DATA)
%       - Bus types are based on the data file. In the data file, nineteen
%         buses 1,3,4,5,6,7,20,21,32,35,36,37,38,46,51,52,53,57, and 59 are
%         generator buses.
%       - Bus No. 1 has been considered as REF = 3. Other generator buses
%         as PV = 2. Remained buses (niether REF, nor PV) as PQ = 1.
%       - Main 14 generator buses are: 1,3,4,5,6,20,21,35,36,37,38,51,52,
%         and 53. In buses 7,32,46,57, and 59, Pg is 0.
%       - Parameters (for power flow analysis) in bus data and generator
%         data (Pd, Qd, Vm/Vg, Va, and baseKV) are based on the data file.
%       - For Gs, Bs, zone, Vmax, and Vmin, typical values of other
%         MATPOWER files were set.
%       - For area, original bus numbers' first digit, refers to the
%         corresponding area. Australian 14 generator system covers 5 areas.
%       - In this file, we converted three digit bus numbers to 1-59 buses.
%         Also, we consider whole system as a single area, so we set all
%         areas as 1 (1 ref bus; 1 area).
%       ##generator data (LF_Case01_R4_S.raw file: GENERATOR DATA)
%       - For Pg and Qg, the data file values were set.
%       - For Qmin and Qmax, no limits were set (-Inf,Inf).
%       - For Pmin and Pmax, (0, Inf) were considered.
%       - For mBase, status, Pmax, Pmin, Pc1, Pc2, Qc1min, Qc1max, Qc2min,
%         Qc2max, ramp_agc, ramp_10, ramp_30, ramp_q, and apf, MATPOWER
%         typical values were set.
%       ##branch data (LF_Case01_R4_S.raw file: BRANCH DATA and TRANSFORMER
%         DATA)
%       - For transmission lines, r, x, and b values from BRANCH DATA and
%         ratio = 1 were entered.
%       - For transmission line (29-30), x value was -0.03370, which was
%         set positive.
%       - For transformers, x and ratio values from TRANSFORMER DATA were used.
%       - For rateA, rateB, and rateC, 0 was set (MATPOWER Manual: set to 0
%         for unlimited).
%       - For angle, status, angmin, and angmax, typical MATPOWER values
%         were set.
%       - Bus numbers from LF_Case01_R4_S.raw file were changed as follows:
%
%           101  >  1     ref
%           102     2
%           201     3     PV
%           202     4     PV
%           203     5     PV
%           204     6     PV
%           205     7     PV
%           206     8
%           207     9
%           208     10
%           209     11
%           210     12
%           211     13
%           212     14
%           213     15
%           214     16
%           215     17
%           216     18
%           217     19
%           301     20     PV
%           302     21     PV
%           303     22
%           304     23
%           305     24
%           306     25
%           307     26
%           308     27
%           309     28
%           310     29
%           311     30
%           312     31
%           313     32     PV
%           314     33
%           315     34
%           401     35     PV
%           402     36     PV
%           403     37     PV
%           404     38     PV
%           405     39
%           406     40
%           407     41
%           408     42
%           409     43
%           410     44
%           411     45
%           412     46     PV
%           413     47
%           414     48
%           415     49
%           416     50
%           501     51     PV
%           502     52     PV
%           503     53     PV
%           504     54
%           505     55
%           506     56
%           507     57     PV
%           508     58
%           509  >  59     PV
%
%   References:
%       [1] C. Canizares et al., "Benchmark Models for the Analysis and
%           Control of Small-Signal Oscillatory Dynamics in Power Systems,"
%           in IEEE Transactions on Power Systems, vol. 32, no. 1,
%           pp. 715-722, Jan. 2017,
%           doi: 10.1109/TPWRS.2016.2561263.
%       [2] Benchmark Systems for Small-Signal Stability Analysis and Control.
%           https://cmte.ieee.org/pes-psdp/benchmark-systems-2/
%       [3] M.J. Gibbard & D.J. Vowles, "Simplified 14-Generator Model of
%           the South East Australian Power System", Revision 4, School
%           of Electrical & Electronic Engineering, The University of
%           Adelaide, South Australia, 14 June 2014.
%           (references [3] as source of data)

%   MATPOWER
%   Licensed under the Creative Commons Attribution 4.0 International license,
%   https://creativecommons.org/licenses/by/4.0/

%% MATPOWER Case Format : Version 2
mpc.version = '2';

%%-----  Power Flow Data  -----%%
%% system MVA base
mpc.baseMVA = 100;

%% bus data
%	bus_i	type	Pd	Qd	Gs	Bs	area	Vm	Va	baseKV	zone	Vmax	Vmin
mpc.bus = [
	1	3	0	0	0	0	1	1	0	15	1	1.06	0.94;
	2	1	450	45	0	0	1	1.03895	-1.4021	330	1	1.06	0.94;
	3	2	0	0	0	0	1	1	48.9004	20	1	1.06	0.94;
	4	2	0	0	0	0	1	1	37.8999	20	1	1.06	0.94;
	5	2	0	0	0	0	1	1	32.241	20	1	1.06	0.94;
	6	2	0	0	0	0	1	1	39.211	20	1	1.06	0.94;
	7	2	390	39	0	0	1	1.055	44.0174	330	1	1.06	0.94;
	8	1	130	13	0	0	1	1.0472	41.4466	330	1	1.06	0.94;
	9	1	1880	188	0	0	1	1.0221	27.6908	330	1	1.06	0.94;
	10	1	210	21	0	0	1	1.03244	26.2505	330	1	1.06	0.94;
	11	1	0	0	0	0	1	1.03793	30.4145	330	1	1.06	0.94;
	12	1	0	0	0	0	1	1.05939	26.6789	500	1	1.06	0.94;
	13	1	1700	170	0	0	1	1.00806	18.8693	330	1	1.06	0.94;
	14	1	1660	166	0	0	1	1.00839	19.1254	330	1	1.06	0.94;
	15	1	0	0	0	0	1	1.04263	22.6683	500	1	1.06	0.94;
	16	1	0	0	0	0	1	1.02565	18.7505	330	1	1.06	0.94;
	17	1	480	48	0	0	1	1.04329	33.114	330	1	1.06	0.94;
	18	1	1840	184	0	0	1	1.01299	16.0964	330	1	1.06	0.94;
	19	1	1260	126	0	0	1	1.00207	9.3905	330	1	1.06	0.94;
	20	2	0	0	0	0	1	1	-3.3932	20	1	1.06	0.94;
	21	2	0	0	0	0	1	1	-18.0204	20	1	1.06	0.94;
	22	1	0	0	0	0	1	1.0417	-10.8515	500	1	1.06	0.94;
	23	1	0	0	0	0	1	1.00933	-21.7495	500	1	1.06	0.94;
	24	1	0	0	0	0	1	1.0164	-22.7619	500	1	1.06	0.94;
	25	1	1230	123	0	0	1	1.01598	-24.9219	500	1	1.06	0.94;
	26	1	650	65	0	0	1	1.01823	-24.9732	500	1	1.06	0.94;
	27	1	655	66	0	0	1	1.03586	-35.4136	500	1	1.06	0.94;
	28	1	195	20	0	0	1	1.02913	-9.3431	330	1	1.06	0.94;
	29	1	0	0	0	0	1	1.01981	-24.8071	330	1	1.06	0.94;
	30	1	0	0	0	0	1	1.01358	-17.6649	330	1	1.06	0.94;
	31	1	115	12	0	0	1	1.0383	-23.5946	220	1	1.06	0.94;
	32	2	2405	240	0	0	1	1.015	-30.2295	220	1	1.06	0.94;
	33	1	250	25	0	0	1	1.01578	-28.5167	220	1	1.06	0.94;
	34	1	0	0	0	0	1	1.03763	-39.0132	275	1	1.06	0.94;
	35	2	0	0	0	0	1	1	74.3354	20	1	1.06	0.94;
	36	2	0	0	0	0	1	1	107.9391	20	1	1.06	0.94;
	37	2	0	0	0	0	1	1	113.3369	20	1	1.06	0.94;
	38	2	0	0	0	0	1	1	106.526	20	1	1.06	0.94;
	39	1	990	99	0	0	1	1.03118	99.5376	275	1	1.06	0.94;
	40	1	740	74	0	0	1	1.03417	104.7857	275	1	1.06	0.94;
	41	1	0	0	0	0	1	1.03927	107.1131	275	1	1.06	0.94;
	42	1	150	15	0	0	1	1.03014	100.3798	275	1	1.06	0.94;
	43	1	260	26	0	0	1	0.98553	76.613	275	1	1.06	0.94;
	44	1	530	53	0	0	1	1.03012	68.1448	275	1	1.06	0.94;
	45	1	575	58	0	0	1	0.99305	62.2465	275	1	1.06	0.94;
	46	2	1255	126	0	0	1	1	60.9735	275	1	1.06	0.94;
	47	1	0	0	0	0	1	1.03981	60.9511	275	1	1.06	0.94;
	48	1	0	0	0	0	1	1.04183	60.1987	330	1	1.06	0.94;
	49	1	0	0	0	0	1	1.04738	56.657	330	1	1.06	0.94;
	50	1	0	0	0	0	1	1.05524	50.2682	330	1	1.06	0.94;
	51	2	0	0	0	0	1	1	-55.315	20	1	1.06	0.94;
	52	2	0	0	0	0	1	1	-53.9517	15	1	1.06	0.94;
	53	2	0	0	0	0	1	1	-56.283	15	1	1.06	0.94;
	54	1	300	60	0	0	1	1.04785	-63.3086	275	1	1.06	0.94;
	55	1	0	0	0	0	1	1.02206	-60.8729	275	1	1.06	0.94;
	56	1	0	0	0	0	1	1.02043	-62.1823	275	1	1.06	0.94;
	57	2	1000	200	0	0	1	1.015	-63.4538	275	1	1.06	0.94;
	58	1	800	160	0	0	1	1.01043	-64.6602	275	1	1.06	0.94;
	59	2	200	40	0	0	1	1.03	-45.7446	275	1	1.06	0.94;
];

%% generator data
%	bus	Pg	Qg	Qmax	Qmin	Vg	mBase	status	Pmax	Pmin	Pc1	Pc2	Qc1min	Qc1max	Qc2min	Qc2max	ramp_agc	ramp_10	ramp_30	ramp_q	apf
mpc.gen = [
	1	300.808	311.463	Inf	-Inf	1	100	1	Inf	0	0	0	0	0	0	0	0	0	0	0	0;
	3	3600	573.64	Inf	-Inf	1	100	1	Inf	0	0	0	0	0	0	0	0	0	0	0	0;
	4	2500	663.381	Inf	-Inf	1	100	1	Inf	0	0	0	0	0	0	0	0	0	0	0	0;
	5	1500	531.183	Inf	-Inf	1	100	1	Inf	0	0	0	0	0	0	0	0	0	0	0	0;
	6	2950.2	734.155	Inf	-Inf	1	100	1	Inf	0	0	0	0	0	0	0	0	0	0	0	0;
	7	0	-68.262	Inf	-Inf	1.055	100	1	Inf	0	0	0	0	0	0	0	0	0	0	0	0;
	20	4200	996.438	Inf	-Inf	1	100	1	Inf	0	0	0	0	0	0	0	0	0	0	0	0;
	21	939.9	154.576	Inf	-Inf	1	100	1	Inf	0	0	0	0	0	0	0	0	0	0	0	0;
	32	0	7.399	Inf	-Inf	1.015	100	1	Inf	0	0	0	0	0	0	0	0	0	0	0	0;
	35	1400	514.88	Inf	-Inf	1	100	1	Inf	0	0	0	0	0	0	0	0	0	0	0	0;
	36	837	177.852	Inf	-Inf	1	100	1	Inf	0	0	0	0	0	0	0	0	0	0	0	0;
	37	1400	209.191	Inf	-Inf	1	100	1	Inf	0	0	0	0	0	0	0	0	0	0	0	0;
	38	1549.8	326.804	Inf	-Inf	1	100	1	Inf	0	0	0	0	0	0	0	0	0	0	0	0;
	46	0	58.162	Inf	-Inf	1	100	1	Inf	0	0	0	0	0	0	0	0	0	0	0	0;
	51	600	50.693	Inf	-Inf	1	100	1	Inf	0	0	0	0	0	0	0	0	0	0	0	0;
	52	800	160.267	Inf	-Inf	1	100	1	Inf	0	0	0	0	0	0	0	0	0	0	0	0;
	53	436	100.855	Inf	-Inf	1	100	1	Inf	0	0	0	0	0	0	0	0	0	0	0	0;
	57	0	22.648	Inf	-Inf	1.015	100	1	Inf	0	0	0	0	0	0	0	0	0	0	0	0;
	59	0	10.554	Inf	-Inf	1.03	100	1	Inf	0	0	0	0	0	0	0	0	0	0	0	0;
];

%% branch data
%	fbus	tbus	r	x	b	rateA	rateB	rateC	ratio	angle	status	angmin	angmax
mpc.branch = [
	2	19	0.0084	0.0667	0.817	0	0	0	0	0	1	-360	360;
	2	19	0.0084	0.0667	0.817	0	0	0	0	0	1	-360	360;
	2	19	0.0078	0.062	0.76	0	0	0	0	0	1	-360	360;
	2	19	0.0078	0.062	0.76	0	0	0	0	0	1	-360	360;
	2	28	0.0045	0.0356	0.437	0	0	0	0	0	1	-360	360;
	2	28	0.0045	0.0356	0.437	0	0	0	0	0	1	-360	360;
	2	28	0.0109	0.0868	0.76	0	0	0	0	0	1	-360	360;
	7	8	0.0096	0.076	0.931	0	0	0	0	0	1	-360	360;
	7	8	0.0096	0.076	0.931	0	0	0	0	0	1	-360	360;
	7	50	0.0037	0.046	0.73	0	0	0	0	0	1	-360	360;
	7	50	0.0037	0.046	0.73	0	0	0	0	0	1	-360	360;
	8	9	0.0045	0.0356	0.437	0	0	0	0	0	1	-360	360;
	8	9	0.0045	0.0356	0.437	0	0	0	0	0	1	-360	360;
	8	14	0.0066	0.0527	0.646	0	0	0	0	0	1	-360	360;
	8	14	0.0066	0.0527	0.646	0	0	0	0	0	1	-360	360;
	8	17	0.0066	0.0527	0.646	0	0	0	0	0	1	-360	360;
	8	17	0.0066	0.0527	0.646	0	0	0	0	0	1	-360	360;
	9	10	0.0018	0.014	0.171	0	0	0	0	0	1	-360	360;
	9	10	0.0018	0.014	0.171	0	0	0	0	0	1	-360	360;
	9	11	0.0008	0.0062	0.076	0	0	0	0	0	1	-360	360;
	10	13	0.0031	0.0248	0.304	0	0	0	0	0	1	-360	360;
	10	13	0.0031	0.0248	0.304	0	0	0	0	0	1	-360	360;
	10	13	0.0031	0.0248	0.304	0	0	0	0	0	1	-360	360;
	11	14	0.0045	0.0356	0.437	0	0	0	0	0	1	-360	360;
	12	15	0.001	0.0145	1.54	0	0	0	0	0	1	-360	360;
	12	15	0.001	0.0145	1.54	0	0	0	0	0	1	-360	360;
	13	14	0.0014	0.0108	0.133	0	0	0	0	0	1	-360	360;
	13	14	0.0014	0.0108	0.133	0	0	0	0	0	1	-360	360;
	13	16	0.0019	0.0155	0.19	0	0	0	0	0	1	-360	360;
	14	19	0.007	0.0558	0.684	0	0	0	0	0	1	-360	360;
	16	18	0.001	0.0077	0.095	0	0	0	0	0	1	-360	360;
	16	19	0.0049	0.0388	0.475	0	0	0	0	0	1	-360	360;
	17	18	0.0051	0.0403	0.494	0	0	0	0	0	1	-360	360;
	17	18	0.0051	0.0403	0.494	0	0	0	0	0	1	-360	360;
	17	19	0.0072	0.0574	0.703	0	0	0	0	0	1	-360	360;
	17	19	0.0072	0.0574	0.703	0	0	0	0	0	1	-360	360;
	18	19	0.0051	0.0403	0.494	0	0	0	0	0	1	-360	360;
	22	23	0.002	0.028	0.74	0	0	0	0	0	1	-360	360;
	22	23	0.002	0.028	0.74	0	0	0	0	0	1	-360	360;
	22	24	0.0011	0.016	1.7	0	0	0	0	0	1	-360	360;
	22	24	0.0011	0.016	1.7	0	0	0	0	0	1	-360	360;
	23	24	0.0003	0.004	0.424	0	0	0	0	0	1	-360	360;
	24	25	0.0002	0.003	0.32	0	0	0	0	0	1	-360	360;
	24	26	0.0003	0.0045	0.447	0	0	0	0	0	1	-360	360;
	24	26	0.0003	0.0045	0.447	0	0	0	0	0	1	-360	360;
	25	26	0.0001	0.0012	0.127	0	0	0	0	0	1	-360	360;
	26	27	0.0023	0.0325	3.445	0	0	0	0	0	1	-360	360;
	26	27	0.0023	0.0325	3.445	0	0	0	0	0	1	-360	360;
	28	29	0.0135	0.10695	0.58267	0	0	0	0	0	1	-360	360;
	28	29	0.0135	0.10695	0.58267	0	0	0	0	0	1	-360	360;
	28	29	0.0135	0.10695	0.58267	0	0	0	0	0	1	-360	360;
	29	30	0	0.0337	0	0	0	0	0	0	1	-360	360;
	29	30	0	0.0337	0	0	0	0	0	0	1	-360	360;
	31	32	0.006	0.045	0.3	0	0	0	0	0	1	-360	360;
	31	32	0.006	0.045	0.3	0	0	0	0	0	1	-360	360;
	31	32	0.006	0.045	0.3	0	0	0	0	0	1	-360	360;
	32	33	0.001	0.01	0.26	0	0	0	0	0	1	-360	360;
	32	33	0.001	0.01	0.26	0	0	0	0	0	1	-360	360;
	34	59	0.007	0.05	0.19	0	0	0	0	0	1	-360	360;
	34	59	0.007	0.05	0.19	0	0	0	0	0	1	-360	360;
	39	40	0.0039	0.0475	0.381	0	0	0	0	0	1	-360	360;
	39	40	0.0039	0.0475	0.381	0	0	0	0	0	1	-360	360;
	39	42	0.0054	0.05	0.189	0	0	0	0	0	1	-360	360;
	39	43	0.018	0.122	0.79	0	0	0	0	0	1	-360	360;
	39	43	0.018	0.122	0.79	0	0	0	0	0	1	-360	360;
	39	43	0.018	0.122	0.79	0	0	0	0	0	1	-360	360;
	40	41	0.0006	0.0076	0.062	0	0	0	0	0	1	-360	360;
	40	41	0.0006	0.0076	0.062	0	0	0	0	0	1	-360	360;
	41	42	0.0042	0.0513	0.412	0	0	0	0	0	1	-360	360;
	42	44	0.0165	0.192	0.67333	0	0	0	0	0	1	-360	360;
	42	44	0.0165	0.192	0.67333	0	0	0	0	0	1	-360	360;
	42	44	0.0165	0.192	0.67333	0	0	0	0	0	1	-360	360;
	43	45	0.0103	0.0709	0.46	0	0	0	0	0	1	-360	360;
	43	45	0.0103	0.0709	0.46	0	0	0	0	0	1	-360	360;
	44	45	0.0043	0.0532	0.427	0	0	0	0	0	1	-360	360;
	44	46	0.0043	0.0532	0.427	0	0	0	0	0	1	-360	360;
	44	46	0.0043	0.0532	0.427	0	0	0	0	0	1	-360	360;
	44	46	0.0043	0.0532	0.427	0	0	0	0	0	1	-360	360;
	44	46	0.0043	0.0532	0.427	0	0	0	0	0	1	-360	360;
	44	47	0.004	0.0494	0.4	0	0	0	0	0	1	-360	360;
	44	47	0.004	0.0494	0.4	0	0	0	0	0	1	-360	360;
	45	46	0.0012	0.0152	0.122	0	0	0	0	0	1	-360	360;
	45	46	0.0012	0.0152	0.122	0	0	0	0	0	1	-360	360;
	48	49	0.002	0.025	0.39	0	0	0	0	0	1	-360	360;
	48	49	0.002	0.025	0.39	0	0	0	0	0	1	-360	360;
	49	50	0.0037	0.046	0.73	0	0	0	0	0	1	-360	360;
	49	50	0.0037	0.046	0.73	0	0	0	0	0	1	-360	360;
	54	57	0.023	0.15	0.56	0	0	0	0	0	1	-360	360;
	54	57	0.023	0.15	0.56	0	0	0	0	0	1	-360	360;
	54	58	0.026	0.019	0.87	0	0	0	0	0	1	-360	360;
	54	58	0.026	0.019	0.87	0	0	0	0	0	1	-360	360;
	55	57	0.0016	0.017	0.03	0	0	0	0	0	1	-360	360;
	55	57	0.0016	0.017	0.03	0	0	0	0	0	1	-360	360;
	55	58	0.0025	0.028	0.17	0	0	0	0	0	1	-360	360;
	56	57	0.0016	0.017	0.03	0	0	0	0	0	1	-360	360;
	56	57	0.0016	0.017	0.03	0	0	0	0	0	1	-360	360;
	56	58	0.003	0.028	0.14	0	0	0	0	0	1	-360	360;
	57	58	0.002	0.019	0.09	0	0	0	0	0	1	-360	360;
	57	59	0.09	0.66	0.3	0	0	0	0	0	1	-360	360;
	57	59	0.09	0.66	0.3	0	0	0	0	0	1	-360	360;
	57	59	0.09	0.66	0.3	0	0	0	0	0	1	-360	360;
	57	59	0.09	0.66	0.3	0	0	0	0	0	1	-360	360;
	57	59	0.09	0.66	0.3	0	0	0	0	0	1	-360	360;
	57	59	0.09	0.66	0.3	0	0	0	0	0	1	-360	360;
	1	2	0	0.009	0	0	0	0	0.939	0	1	-360	360;
	3	8	0	0.004	0	0	0	0	0.9434	0	1	-360	360;
	4	11	0	0.00576	0	0	0	0	0.939	0	1	-360	360;
	5	10	0	0.00765	0	0	0	0	0.939	0	1	-360	360;
	6	17	0	0.004	0	0	0	0	0.939	0	1	-360	360;
	11	12	0	0.0272	0	0	0	0	0.9756	0	1	-360	360;
	11	12	0	0.0272	0	0	0	0	0.9756	0	1	-360	360;
	11	12	0	0.0272	0	0	0	0	0.9756	0	1	-360	360;
	11	12	0	0.0272	0	0	0	0	0.9756	0	1	-360	360;
	15	16	0	0.0272	0	0	0	0	1	0	1	-360	360;
	15	16	0	0.0272	0	0	0	0	1	0	1	-360	360;
	15	16	0	0.0272	0	0	0	0	1	0	1	-360	360;
	15	16	0	0.0272	0	0	0	0	1	0	1	-360	360;
	20	22	0	0.00343	0	0	0	0	0.939	0	1	-360	360;
	21	31	0	0.01127	0	0	0	0	0.9524	0	1	-360	360;
	23	32	0	0.032	0	0	0	0	0.9615	0	1	-360	360;
	23	32	0	0.032	0	0	0	0	0.9615	0	1	-360	360;
	24	30	0	0.036	0	0	0	0	1	0	1	-360	360;
	24	30	0	0.036	0	0	0	0	1	0	1	-360	360;
	24	30	0	0.036	0	0	0	0	1	0	1	-360	360;
	24	33	0	0.024	0	0	0	0	1	0	1	-360	360;
	24	33	0	0.024	0	0	0	0	1	0	1	-360	360;
	27	34	0	0.027	0	0	0	0	1	0	1	-360	360;
	27	34	0	0.027	0	0	0	0	1	0	1	-360	360;
	35	44	0	0.00845	0	0	0	0	0.939	0	1	-360	360;
	36	42	0	0.017	0	0	0	0	0.9524	0	1	-360	360;
	37	41	0	0.00845	0	0	0	0	0.9524	0	1	-360	360;
	38	39	0	0.0085	0	0	0	0	0.9524	0	1	-360	360;
	47	48	0	0.008	0	0	0	0	1	0	1	-360	360;
	47	48	0	0.008	0	0	0	0	1	0	1	-360	360;
	47	48	0	0.008	0	0	0	0	1	0	1	-360	360;
	51	54	0	0.0255	0	0	0	0	0.9524	0	1	-360	360;
	52	55	0	0.016	0	0	0	0	0.9622	0	1	-360	360;
	53	56	0	0.025	0	0	0	0	0.9622	0	1	-360	360;
];


mpc.gencost = [
	2	0	0	3	0.077579519	20	0;
	2	0	0	3	0.01	40	0;
	2	0	0	3	0.25	20	0;
	2	0	0	3	0.01	40	0;
	2	0	0	3	0.0222222222	20	0;
	2	0	0	3	0.01	40	0;
	2	0	0	3	0.0322580645	20	0;
    	2	0	0	3	0.077579519	20	0;
	2	0	0	3	0.01	40	0;
	2	0	0	3	0.25	20	0;
	2	0	0	3	0.01	40	0;
	2	0	0	3	0.0222222222	20	0;
	2	0	0	3	0.01	40	0;
	2	0	0	3	0.0322580645	20	0;
    	2	0	0	3	0.077579519	20	0;
	2	0	0	3	0.01	40	0;
	2	0	0	3	0.25	20	0;
	2	0	0	3	0.01	40	0;
	2	0	0	3	0.0222222222	20	0;
];

